<?xml version="1.0"?>
<routes xmlns:xsi="http://www.w3.org/2001/XMLSchema-instance"
    xsi:noNamespaceSchemaLocation="https://sumo.dlr.de/xsd/routes_file.xsd">
    <route id="west_north1" edges="E3 -E1" />
    <flow id="cf1" color="1,1,0" route="west_north1" number="10" begin="50" end="100" />
    <route id="west_east2" edges="E3 -E0" />
    <flow id="cf2" color="1,1,0" route="west_east2" number="1" begin="50" end="100" />
    <route id="west_south3" edges="E3 -E2" />
    <flow id="cf3" color="1,1,0" route="west_south3" number="1" begin="50" end="100" />
    <route id="north_west4" edges="E1 -E3" />
    <flow id="cf4" color="1,1,0" route="north_west4" number="1" begin="50" end="100" />
    <route id="north_east5" edges="E1 -E0" />
    <flow id="cf5" color="1,1,0" route="north_east5" number="3" begin="50" end="100" />
    <route id="north_south6" edges="E1 -E2" />
    <flow id="cf6" color="1,1,0" route="north_south6" number="2" begin="50" end="100" />
    <route id="east_west7" edges="E0 -E3" />
    <flow id="cf7" color="1,1,0" route="east_west7" number="13" begin="50" end="100" />
    <route id="east_north8" edges="E0 -E1" />
    <flow id="cf8" color="1,1,0" route="east_north8" number="1" begin="50" end="100" />
    <route id="east_south9" edges="E0 -E2" />
    <flow id="cf9" color="1,1,0" route="east_south9" number="0" begin="50" end="100" />
    <route id="south_west10" edges="E2 -E3" />
    <flow id="cf10" color="1,1,0" route="south_west10" number="2" begin="50" end="100" />
    <route id="south_north11" edges="E2 -E1" />
    <flow id="cf11" color="1,1,0" route="south_north11" number="3" begin="50" end="100" />
    <route id="south_east12" edges="E2 -E0" />
    <flow id="cf12" color="1,1,0" route="south_east12" number="2" begin="50" end="100" />
    <route id="west_north13" edges="E3 -E1" />
    <flow id="cf13" color="1,1,0" route="west_north13" number="11" begin="100" end="150" />
    <route id="west_east14" edges="E3 -E0" />
    <flow id="cf14" color="1,1,0" route="west_east14" number="1" begin="100" end="150" />
    <route id="west_south15" edges="E3 -E2" />
    <flow id="cf15" color="1,1,0" route="west_south15" number="0" begin="100" end="150" />
    <route id="north_west16" edges="E1 -E3" />
    <flow id="cf16" color="1,1,0" route="north_west16" number="3" begin="100" end="150" />
    <route id="north_east17" edges="E1 -E0" />
    <flow id="cf17" color="1,1,0" route="north_east17" number="4" begin="100" end="150" />
    <route id="north_south18" edges="E1 -E2" />
    <flow id="cf18" color="1,1,0" route="north_south18" number="0" begin="100" end="150" />
    <route id="east_west19" edges="E0 -E3" />
    <flow id="cf19" color="1,1,0" route="east_west19" number="9" begin="100" end="150" />
    <route id="east_north20" edges="E0 -E1" />
    <flow id="cf20" color="1,1,0" route="east_north20" number="4" begin="100" end="150" />
    <route id="east_south21" edges="E0 -E2" />
    <flow id="cf21" color="1,1,0" route="east_south21" number="1" begin="100" end="150" />
    <route id="south_west22" edges="E2 -E3" />
    <flow id="cf22" color="1,1,0" route="south_west22" number="4" begin="100" end="150" />
    <route id="south_north23" edges="E2 -E1" />
    <flow id="cf23" color="1,1,0" route="south_north23" number="3" begin="100" end="150" />
    <route id="south_east24" edges="E2 -E0" />
    <flow id="cf24" color="1,1,0" route="south_east24" number="0" begin="100" end="150" />
    <route id="west_north25" edges="E3 -E1" />
    <flow id="cf25" color="1,1,0" route="west_north25" number="9" begin="150" end="200" />
    <route id="west_east26" edges="E3 -E0" />
    <flow id="cf26" color="1,1,0" route="west_east26" number="2" begin="150" end="200" />
    <route id="west_south27" edges="E3 -E2" />
    <flow id="cf27" color="1,1,0" route="west_south27" number="1" begin="150" end="200" />
    <route id="north_west28" edges="E1 -E3" />
    <flow id="cf28" color="1,1,0" route="north_west28" number="6" begin="150" end="200" />
    <route id="north_east29" edges="E1 -E0" />
    <flow id="cf29" color="1,1,0" route="north_east29" number="0" begin="150" end="200" />
    <route id="north_south30" edges="E1 -E2" />
    <flow id="cf30" color="1,1,0" route="north_south30" number="0" begin="150" end="200" />
    <route id="east_west31" edges="E0 -E3" />
    <flow id="cf31" color="1,1,0" route="east_west31" number="2" begin="150" end="200" />
    <route id="east_north32" edges="E0 -E1" />
    <flow id="cf32" color="1,1,0" route="east_north32" number="10" begin="150" end="200" />
    <route id="east_south33" edges="E0 -E2" />
    <flow id="cf33" color="1,1,0" route="east_south33" number="3" begin="150" end="200" />
    <route id="south_west34" edges="E2 -E3" />
    <flow id="cf34" color="1,1,0" route="south_west34" number="4" begin="150" end="200" />
    <route id="south_north35" edges="E2 -E1" />
    <flow id="cf35" color="1,1,0" route="south_north35" number="1" begin="150" end="200" />
    <route id="south_east36" edges="E2 -E0" />
    <flow id="cf36" color="1,1,0" route="south_east36" number="2" begin="150" end="200" />
    <route id="west_north37" edges="E3 -E1" />
    <flow id="cf37" color="1,1,0" route="west_north37" number="9" begin="200" end="250" />
    <route id="west_east38" edges="E3 -E0" />
    <flow id="cf38" color="1,1,0" route="west_east38" number="3" begin="200" end="250" />
    <route id="west_south39" edges="E3 -E2" />
    <flow id="cf39" color="1,1,0" route="west_south39" number="0" begin="200" end="250" />
    <route id="north_west40" edges="E1 -E3" />
    <flow id="cf40" color="1,1,0" route="north_west40" number="1" begin="200" end="250" />
    <route id="north_east41" edges="E1 -E0" />
    <flow id="cf41" color="1,1,0" route="north_east41" number="2" begin="200" end="250" />
    <route id="north_south42" edges="E1 -E2" />
    <flow id="cf42" color="1,1,0" route="north_south42" number="1" begin="200" end="250" />
    <route id="east_west43" edges="E0 -E3" />
    <flow id="cf43" color="1,1,0" route="east_west43" number="9" begin="200" end="250" />
    <route id="east_north44" edges="E0 -E1" />
    <flow id="cf44" color="1,1,0" route="east_north44" number="3" begin="200" end="250" />
    <route id="east_south45" edges="E0 -E2" />
    <flow id="cf45" color="1,1,0" route="east_south45" number="4" begin="200" end="250" />
    <route id="south_west46" edges="E2 -E3" />
    <flow id="cf46" color="1,1,0" route="south_west46" number="3" begin="200" end="250" />
    <route id="south_north47" edges="E2 -E1" />
    <flow id="cf47" color="1,1,0" route="south_north47" number="4" begin="200" end="250" />
    <route id="south_east48" edges="E2 -E0" />
    <flow id="cf48" color="1,1,0" route="south_east48" number="0" begin="200" end="250" />
    <route id="west_north49" edges="E3 -E1" />
    <flow id="cf49" color="1,1,0" route="west_north49" number="11" begin="250" end="300" />
    <route id="west_east50" edges="E3 -E0" />
    <flow id="cf50" color="1,1,0" route="west_east50" number="1" begin="250" end="300" />
    <route id="west_south51" edges="E3 -E2" />
    <flow id="cf51" color="1,1,0" route="west_south51" number="0" begin="250" end="300" />
    <route id="north_west52" edges="E1 -E3" />
    <flow id="cf52" color="1,1,0" route="north_west52" number="3" begin="250" end="300" />
    <route id="north_east53" edges="E1 -E0" />
    <flow id="cf53" color="1,1,0" route="north_east53" number="2" begin="250" end="300" />
    <route id="north_south54" edges="E1 -E2" />
    <flow id="cf54" color="1,1,0" route="north_south54" number="1" begin="250" end="300" />
    <route id="east_west55" edges="E0 -E3" />
    <flow id="cf55" color="1,1,0" route="east_west55" number="3" begin="250" end="300" />
    <route id="east_north56" edges="E0 -E1" />
    <flow id="cf56" color="1,1,0" route="east_north56" number="2" begin="250" end="300" />
    <route id="east_south57" edges="E0 -E2" />
    <flow id="cf57" color="1,1,0" route="east_south57" number="5" begin="250" end="300" />
    <route id="south_west58" edges="E2 -E3" />
    <flow id="cf58" color="1,1,0" route="south_west58" number="5" begin="250" end="300" />
    <route id="south_north59" edges="E2 -E1" />
    <flow id="cf59" color="1,1,0" route="south_north59" number="2" begin="250" end="300" />
    <route id="south_east60" edges="E2 -E0" />
    <flow id="cf60" color="1,1,0" route="south_east60" number="0" begin="250" end="300" />
    <route id="west_north61" edges="E3 -E1" />
    <flow id="cf61" color="1,1,0" route="west_north61" number="1" begin="300" end="350" />
    <route id="west_east62" edges="E3 -E0" />
    <flow id="cf62" color="1,1,0" route="west_east62" number="3" begin="300" end="350" />
    <route id="west_south63" edges="E3 -E2" />
    <flow id="cf63" color="1,1,0" route="west_south63" number="1" begin="300" end="350" />
    <route id="north_west64" edges="E1 -E3" />
    <flow id="cf64" color="1,1,0" route="north_west64" number="5" begin="300" end="350" />
    <route id="north_east65" edges="E1 -E0" />
    <flow id="cf65" color="1,1,0" route="north_east65" number="1" begin="300" end="350" />
    <route id="north_south66" edges="E1 -E2" />
    <flow id="cf66" color="1,1,0" route="north_south66" number="0" begin="300" end="350" />
    <route id="east_west67" edges="E0 -E3" />
    <flow id="cf67" color="1,1,0" route="east_west67" number="9" begin="300" end="350" />
    <route id="east_north68" edges="E0 -E1" />
    <flow id="cf68" color="1,1,0" route="east_north68" number="3" begin="300" end="350" />
    <route id="east_south69" edges="E0 -E2" />
    <flow id="cf69" color="1,1,0" route="east_south69" number="1" begin="300" end="350" />
    <route id="south_west70" edges="E2 -E3" />
    <flow id="cf70" color="1,1,0" route="south_west70" number="2" begin="300" end="350" />
    <route id="south_north71" edges="E2 -E1" />
    <flow id="cf71" color="1,1,0" route="south_north71" number="1" begin="300" end="350" />
    <route id="south_east72" edges="E2 -E0" />
    <flow id="cf72" color="1,1,0" route="south_east72" number="3" begin="300" end="350" />
    <route id="west_north73" edges="E3 -E1" />
    <flow id="cf73" color="1,1,0" route="west_north73" number="2" begin="350" end="400" />
    <route id="west_east74" edges="E3 -E0" />
    <flow id="cf74" color="1,1,0" route="west_east74" number="2" begin="350" end="400" />
    <route id="west_south75" edges="E3 -E2" />
    <flow id="cf75" color="1,1,0" route="west_south75" number="3" begin="350" end="400" />
    <route id="north_west76" edges="E1 -E3" />
    <flow id="cf76" color="1,1,0" route="north_west76" number="4" begin="350" end="400" />
    <route id="north_east77" edges="E1 -E0" />
    <flow id="cf77" color="1,1,0" route="north_east77" number="2" begin="350" end="400" />
    <route id="north_south78" edges="E1 -E2" />
    <flow id="cf78" color="1,1,0" route="north_south78" number="0" begin="350" end="400" />
    <route id="east_west79" edges="E0 -E3" />
    <flow id="cf79" color="1,1,0" route="east_west79" number="4" begin="350" end="400" />
    <route id="east_north80" edges="E0 -E1" />
    <flow id="cf80" color="1,1,0" route="east_north80" number="7" begin="350" end="400" />
    <route id="east_south81" edges="E0 -E2" />
    <flow id="cf81" color="1,1,0" route="east_south81" number="2" begin="350" end="400" />
    <route id="south_west82" edges="E2 -E3" />
    <flow id="cf82" color="1,1,0" route="south_west82" number="6" begin="350" end="400" />
    <route id="south_north83" edges="E2 -E1" />
    <flow id="cf83" color="1,1,0" route="south_north83" number="1" begin="350" end="400" />
    <route id="south_east84" edges="E2 -E0" />
    <flow id="cf84" color="1,1,0" route="south_east84" number="0" begin="350" end="400" />
    <route id="west_north85" edges="E3 -E1" />
    <flow id="cf85" color="1,1,0" route="west_north85" number="9" begin="400" end="450" />
    <route id="west_east86" edges="E3 -E0" />
    <flow id="cf86" color="1,1,0" route="west_east86" number="1" begin="400" end="450" />
    <route id="west_south87" edges="E3 -E2" />
    <flow id="cf87" color="1,1,0" route="west_south87" number="2" begin="400" end="450" />
    <route id="north_west88" edges="E1 -E3" />
    <flow id="cf88" color="1,1,0" route="north_west88" number="3" begin="400" end="450" />
    <route id="north_east89" edges="E1 -E0" />
    <flow id="cf89" color="1,1,0" route="north_east89" number="3" begin="400" end="450" />
    <route id="north_south90" edges="E1 -E2" />
    <flow id="cf90" color="1,1,0" route="north_south90" number="0" begin="400" end="450" />
    <route id="east_west91" edges="E0 -E3" />
    <flow id="cf91" color="1,1,0" route="east_west91" number="10" begin="400" end="450" />
    <route id="east_north92" edges="E0 -E1" />
    <flow id="cf92" color="1,1,0" route="east_north92" number="2" begin="400" end="450" />
    <route id="east_south93" edges="E0 -E2" />
    <flow id="cf93" color="1,1,0" route="east_south93" number="1" begin="400" end="450" />
    <route id="south_west94" edges="E2 -E3" />
    <flow id="cf94" color="1,1,0" route="south_west94" number="1" begin="400" end="450" />
    <route id="south_north95" edges="E2 -E1" />
    <flow id="cf95" color="1,1,0" route="south_north95" number="1" begin="400" end="450" />
    <route id="south_east96" edges="E2 -E0" />
    <flow id="cf96" color="1,1,0" route="south_east96" number="1" begin="400" end="450" />
    <route id="west_north97" edges="E3 -E1" />
    <flow id="cf97" color="1,1,0" route="west_north97" number="7" begin="450" end="500" />
    <route id="west_east98" edges="E3 -E0" />
    <flow id="cf98" color="1,1,0" route="west_east98" number="3" begin="450" end="500" />
    <route id="west_south99" edges="E3 -E2" />
    <flow id="cf99" color="1,1,0" route="west_south99" number="2" begin="450" end="500" />
    <route id="north_west100" edges="E1 -E3" />
    <flow id="cf100" color="1,1,0" route="north_west100" number="4" begin="450" end="500" />
    <route id="north_east101" edges="E1 -E0" />
    <flow id="cf101" color="1,1,0" route="north_east101" number="1" begin="450" end="500" />
    <route id="north_south102" edges="E1 -E2" />
    <flow id="cf102" color="1,1,0" route="north_south102" number="1" begin="450" end="500" />
    <route id="east_west103" edges="E0 -E3" />
    <flow id="cf103" color="1,1,0" route="east_west103" number="2" begin="450" end="500" />
    <route id="east_north104" edges="E0 -E1" />
    <flow id="cf104" color="1,1,0" route="east_north104" number="10" begin="450" end="500" />
    <route id="east_south105" edges="E0 -E2" />
    <flow id="cf105" color="1,1,0" route="east_south105" number="1" begin="450" end="500" />
    <route id="south_west106" edges="E2 -E3" />
    <flow id="cf106" color="1,1,0" route="south_west106" number="1" begin="450" end="500" />
    <route id="south_north107" edges="E2 -E1" />
    <flow id="cf107" color="1,1,0" route="south_north107" number="6" begin="450" end="500" />
    <route id="south_east108" edges="E2 -E0" />
    <flow id="cf108" color="1,1,0" route="south_east108" number="0" begin="450" end="500" />
    <route id="west_north109" edges="E3 -E1" />
    <flow id="cf109" color="1,1,0" route="west_north109" number="10" begin="500" end="550" />
    <route id="west_east110" edges="E3 -E0" />
    <flow id="cf110" color="1,1,0" route="west_east110" number="1" begin="500" end="550" />
    <route id="west_south111" edges="E3 -E2" />
    <flow id="cf111" color="1,1,0" route="west_south111" number="1" begin="500" end="550" />
    <route id="north_west112" edges="E1 -E3" />
    <flow id="cf112" color="1,1,0" route="north_west112" number="6" begin="500" end="550" />
    <route id="north_east113" edges="E1 -E0" />
    <flow id="cf113" color="1,1,0" route="north_east113" number="0" begin="500" end="550" />
    <route id="north_south114" edges="E1 -E2" />
    <flow id="cf114" color="1,1,0" route="north_south114" number="0" begin="500" end="550" />
    <route id="east_west115" edges="E0 -E3" />
    <flow id="cf115" color="1,1,0" route="east_west115" number="13" begin="500" end="550" />
    <route id="east_north116" edges="E0 -E1" />
    <flow id="cf116" color="1,1,0" route="east_north116" number="0" begin="500" end="550" />
    <route id="east_south117" edges="E0 -E2" />
    <flow id="cf117" color="1,1,0" route="east_south117" number="0" begin="500" end="550" />
    <route id="south_west118" edges="E2 -E3" />
    <flow id="cf118" color="1,1,0" route="south_west118" number="6" begin="500" end="550" />
    <route id="south_north119" edges="E2 -E1" />
    <flow id="cf119" color="1,1,0" route="south_north119" number="1" begin="500" end="550" />
    <route id="south_east120" edges="E2 -E0" />
    <flow id="cf120" color="1,1,0" route="south_east120" number="0" begin="500" end="550" />
    <route id="west_north121" edges="E3 -E1" />
    <flow id="cf121" color="1,1,0" route="west_north121" number="6" begin="550" end="600" />
    <route id="west_east122" edges="E3 -E0" />
    <flow id="cf122" color="1,1,0" route="west_east122" number="6" begin="550" end="600" />
    <route id="west_south123" edges="E3 -E2" />
    <flow id="cf123" color="1,1,0" route="west_south123" number="0" begin="550" end="600" />
    <route id="north_west124" edges="E1 -E3" />
    <flow id="cf124" color="1,1,0" route="north_west124" number="1" begin="550" end="600" />
    <route id="north_east125" edges="E1 -E0" />
    <flow id="cf125" color="1,1,0" route="north_east125" number="1" begin="550" end="600" />
    <route id="north_south126" edges="E1 -E2" />
    <flow id="cf126" color="1,1,0" route="north_south126" number="3" begin="550" end="600" />
    <route id="east_west127" edges="E0 -E3" />
    <flow id="cf127" color="1,1,0" route="east_west127" number="13" begin="550" end="600" />
    <route id="east_north128" edges="E0 -E1" />
    <flow id="cf128" color="1,1,0" route="east_north128" number="0" begin="550" end="600" />
    <route id="east_south129" edges="E0 -E2" />
    <flow id="cf129" color="1,1,0" route="east_south129" number="0" begin="550" end="600" />
    <route id="south_west130" edges="E2 -E3" />
    <flow id="cf130" color="1,1,0" route="south_west130" number="2" begin="550" end="600" />
    <route id="south_north131" edges="E2 -E1" />
    <flow id="cf131" color="1,1,0" route="south_north131" number="4" begin="550" end="600" />
    <route id="south_east132" edges="E2 -E0" />
    <flow id="cf132" color="1,1,0" route="south_east132" number="1" begin="550" end="600" />
    <route id="west_north133" edges="E3 -E1" />
    <flow id="cf133" color="1,1,0" route="west_north133" number="10" begin="600" end="650" />
    <route id="west_east134" edges="E3 -E0" />
    <flow id="cf134" color="1,1,0" route="west_east134" number="1" begin="600" end="650" />
    <route id="west_south135" edges="E3 -E2" />
    <flow id="cf135" color="1,1,0" route="west_south135" number="0" begin="600" end="650" />
    <route id="north_west136" edges="E1 -E3" />
    <flow id="cf136" color="1,1,0" route="north_west136" number="4" begin="600" end="650" />
    <route id="north_east137" edges="E1 -E0" />
    <flow id="cf137" color="1,1,0" route="north_east137" number="2" begin="600" end="650" />
    <route id="north_south138" edges="E1 -E2" />
    <flow id="cf138" color="1,1,0" route="north_south138" number="0" begin="600" end="650" />
    <route id="east_west139" edges="E0 -E3" />
    <flow id="cf139" color="1,1,0" route="east_west139" number="8" begin="600" end="650" />
    <route id="east_north140" edges="E0 -E1" />
    <flow id="cf140" color="1,1,0" route="east_north140" number="1" begin="600" end="650" />
    <route id="east_south141" edges="E0 -E2" />
    <flow id="cf141" color="1,1,0" route="east_south141" number="1" begin="600" end="650" />
    <route id="south_west142" edges="E2 -E3" />
    <flow id="cf142" color="1,1,0" route="south_west142" number="1" begin="600" end="650" />
    <route id="south_north143" edges="E2 -E1" />
    <flow id="cf143" color="1,1,0" route="south_north143" number="2" begin="600" end="650" />
    <route id="south_east144" edges="E2 -E0" />
    <flow id="cf144" color="1,1,0" route="south_east144" number="0" begin="600" end="650" />
    <route id="west_north145" edges="E3 -E1" />
    <flow id="cf145" color="1,1,0" route="west_north145" number="8" begin="650" end="700" />
    <route id="west_east146" edges="E3 -E0" />
    <flow id="cf146" color="1,1,0" route="west_east146" number="3" begin="650" end="700" />
    <route id="west_south147" edges="E3 -E2" />
    <flow id="cf147" color="1,1,0" route="west_south147" number="0" begin="650" end="700" />
    <route id="north_west148" edges="E1 -E3" />
    <flow id="cf148" color="1,1,0" route="north_west148" number="4" begin="650" end="700" />
    <route id="north_east149" edges="E1 -E0" />
    <flow id="cf149" color="1,1,0" route="north_east149" number="1" begin="650" end="700" />
    <route id="north_south150" edges="E1 -E2" />
    <flow id="cf150" color="1,1,0" route="north_south150" number="1" begin="650" end="700" />
    <route id="east_west151" edges="E0 -E3" />
    <flow id="cf151" color="1,1,0" route="east_west151" number="8" begin="650" end="700" />
    <route id="east_north152" edges="E0 -E1" />
    <flow id="cf152" color="1,1,0" route="east_north152" number="3" begin="650" end="700" />
    <route id="east_south153" edges="E0 -E2" />
    <flow id="cf153" color="1,1,0" route="east_south153" number="0" begin="650" end="700" />
    <route id="south_west154" edges="E2 -E3" />
    <flow id="cf154" color="1,1,0" route="south_west154" number="4" begin="650" end="700" />
    <route id="south_north155" edges="E2 -E1" />
    <flow id="cf155" color="1,1,0" route="south_north155" number="3" begin="650" end="700" />
    <route id="south_east156" edges="E2 -E0" />
    <flow id="cf156" color="1,1,0" route="south_east156" number="0" begin="650" end="700" />
    <route id="west_north157" edges="E3 -E1" />
    <flow id="cf157" color="1,1,0" route="west_north157" number="1" begin="700" end="750" />
    <route id="west_east158" edges="E3 -E0" />
    <flow id="cf158" color="1,1,0" route="west_east158" number="9" begin="700" end="750" />
    <route id="west_south159" edges="E3 -E2" />
    <flow id="cf159" color="1,1,0" route="west_south159" number="1" begin="700" end="750" />
    <route id="north_west160" edges="E1 -E3" />
    <flow id="cf160" color="1,1,0" route="north_west160" number="3" begin="700" end="750" />
    <route id="north_east161" edges="E1 -E0" />
    <flow id="cf161" color="1,1,0" route="north_east161" number="2" begin="700" end="750" />
    <route id="north_south162" edges="E1 -E2" />
    <flow id="cf162" color="1,1,0" route="north_south162" number="1" begin="700" end="750" />
    <route id="east_west163" edges="E0 -E3" />
    <flow id="cf163" color="1,1,0" route="east_west163" number="2" begin="700" end="750" />
    <route id="east_north164" edges="E0 -E1" />
    <flow id="cf164" color="1,1,0" route="east_north164" number="2" begin="700" end="750" />
    <route id="east_south165" edges="E0 -E2" />
    <flow id="cf165" color="1,1,0" route="east_south165" number="5" begin="700" end="750" />
    <route id="south_west166" edges="E2 -E3" />
    <flow id="cf166" color="1,1,0" route="south_west166" number="6" begin="700" end="750" />
    <route id="south_north167" edges="E2 -E1" />
    <flow id="cf167" color="1,1,0" route="south_north167" number="1" begin="700" end="750" />
    <route id="south_east168" edges="E2 -E0" />
    <flow id="cf168" color="1,1,0" route="south_east168" number="0" begin="700" end="750" />
    <route id="west_north169" edges="E3 -E1" />
    <flow id="cf169" color="1,1,0" route="west_north169" number="8" begin="750" end="800" />
    <route id="west_east170" edges="E3 -E0" />
    <flow id="cf170" color="1,1,0" route="west_east170" number="2" begin="750" end="800" />
    <route id="west_south171" edges="E3 -E2" />
    <flow id="cf171" color="1,1,0" route="west_south171" number="1" begin="750" end="800" />
    <route id="north_west172" edges="E1 -E3" />
    <flow id="cf172" color="1,1,0" route="north_west172" number="1" begin="750" end="800" />
    <route id="north_east173" edges="E1 -E0" />
    <flow id="cf173" color="1,1,0" route="north_east173" number="5" begin="750" end="800" />
    <route id="north_south174" edges="E1 -E2" />
    <flow id="cf174" color="1,1,0" route="north_south174" number="0" begin="750" end="800" />
    <route id="east_west175" edges="E0 -E3" />
    <flow id="cf175" color="1,1,0" route="east_west175" number="8" begin="750" end="800" />
    <route id="east_north176" edges="E0 -E1" />
    <flow id="cf176" color="1,1,0" route="east_north176" number="2" begin="750" end="800" />
    <route id="east_south177" edges="E0 -E2" />
    <flow id="cf177" color="1,1,0" route="east_south177" number="1" begin="750" end="800" />
    <route id="south_west178" edges="E2 -E3" />
    <flow id="cf178" color="1,1,0" route="south_west178" number="3" begin="750" end="800" />
    <route id="south_north179" edges="E2 -E1" />
    <flow id="cf179" color="1,1,0" route="south_north179" number="0" begin="750" end="800" />
    <route id="south_east180" edges="E2 -E0" />
    <flow id="cf180" color="1,1,0" route="south_east180" number="0" begin="750" end="800" />
    <route id="west_north181" edges="E3 -E1" />
    <flow id="cf181" color="1,1,0" route="west_north181" number="7" begin="800" end="850" />
    <route id="west_east182" edges="E3 -E0" />
    <flow id="cf182" color="1,1,0" route="west_east182" number="1" begin="800" end="850" />
    <route id="west_south183" edges="E3 -E2" />
    <flow id="cf183" color="1,1,0" route="west_south183" number="2" begin="800" end="850" />
    <route id="north_west184" edges="E1 -E3" />
    <flow id="cf184" color="1,1,0" route="north_west184" number="5" begin="800" end="850" />
    <route id="north_east185" edges="E1 -E0" />
    <flow id="cf185" color="1,1,0" route="north_east185" number="1" begin="800" end="850" />
    <route id="north_south186" edges="E1 -E2" />
    <flow id="cf186" color="1,1,0" route="north_south186" number="0" begin="800" end="850" />
    <route id="east_west187" edges="E0 -E3" />
    <flow id="cf187" color="1,1,0" route="east_west187" number="6" begin="800" end="850" />
    <route id="east_north188" edges="E0 -E1" />
    <flow id="cf188" color="1,1,0" route="east_north188" number="1" begin="800" end="850" />
    <route id="east_south189" edges="E0 -E2" />
    <flow id="cf189" color="1,1,0" route="east_south189" number="2" begin="800" end="850" />
    <route id="south_west190" edges="E2 -E3" />
    <flow id="cf190" color="1,1,0" route="south_west190" number="4" begin="800" end="850" />
    <route id="south_north191" edges="E2 -E1" />
    <flow id="cf191" color="1,1,0" route="south_north191" number="3" begin="800" end="850" />
    <route id="south_east192" edges="E2 -E0" />
    <flow id="cf192" color="1,1,0" route="south_east192" number="0" begin="800" end="850" />
    <route id="west_north193" edges="E3 -E1" />
    <flow id="cf193" color="1,1,0" route="west_north193" number="7" begin="850" end="900" />
    <route id="west_east194" edges="E3 -E0" />
    <flow id="cf194" color="1,1,0" route="west_east194" number="3" begin="850" end="900" />
    <route id="west_south195" edges="E3 -E2" />
    <flow id="cf195" color="1,1,0" route="west_south195" number="1" begin="850" end="900" />
    <route id="north_west196" edges="E1 -E3" />
    <flow id="cf196" color="1,1,0" route="north_west196" number="4" begin="850" end="900" />
    <route id="north_east197" edges="E1 -E0" />
    <flow id="cf197" color="1,1,0" route="north_east197" number="2" begin="850" end="900" />
    <route id="north_south198" edges="E1 -E2" />
    <flow id="cf198" color="1,1,0" route="north_south198" number="0" begin="850" end="900" />
    <route id="east_west199" edges="E0 -E3" />
    <flow id="cf199" color="1,1,0" route="east_west199" number="10" begin="850" end="900" />
    <route id="east_north200" edges="E0 -E1" />
    <flow id="cf200" color="1,1,0" route="east_north200" number="1" begin="850" end="900" />
    <route id="east_south201" edges="E0 -E2" />
    <flow id="cf201" color="1,1,0" route="east_south201" number="0" begin="850" end="900" />
    <route id="south_west202" edges="E2 -E3" />
    <flow id="cf202" color="1,1,0" route="south_west202" number="1" begin="850" end="900" />
    <route id="south_north203" edges="E2 -E1" />
    <flow id="cf203" color="1,1,0" route="south_north203" number="1" begin="850" end="900" />
    <route id="south_east204" edges="E2 -E0" />
    <flow id="cf204" color="1,1,0" route="south_east204" number="1" begin="850" end="900" />
    <route id="west_north205" edges="E3 -E1" />
    <flow id="cf205" color="1,1,0" route="west_north205" number="4" begin="900" end="950" />
    <route id="west_east206" edges="E3 -E0" />
    <flow id="cf206" color="1,1,0" route="west_east206" number="5" begin="900" end="950" />
    <route id="west_south207" edges="E3 -E2" />
    <flow id="cf207" color="1,1,0" route="west_south207" number="2" begin="900" end="950" />
    <route id="north_west208" edges="E1 -E3" />
    <flow id="cf208" color="1,1,0" route="north_west208" number="2" begin="900" end="950" />
    <route id="north_east209" edges="E1 -E0" />
    <flow id="cf209" color="1,1,0" route="north_east209" number="3" begin="900" end="950" />
    <route id="north_south210" edges="E1 -E2" />
    <flow id="cf210" color="1,1,0" route="north_south210" number="1" begin="900" end="950" />
    <route id="east_west211" edges="E0 -E3" />
    <flow id="cf211" color="1,1,0" route="east_west211" number="11" begin="900" end="950" />
    <route id="east_north212" edges="E0 -E1" />
    <flow id="cf212" color="1,1,0" route="east_north212" number="0" begin="900" end="950" />
    <route id="east_south213" edges="E0 -E2" />
    <flow id="cf213" color="1,1,0" route="east_south213" number="0" begin="900" end="950" />
    <route id="south_west214" edges="E2 -E3" />